<?xml version="1.0" encoding="UTF-8"?>

<!-- generated on 05/20/20 09:07:10 by Eclipse SUMO netedit Version 1.4.0
<configuration xmlns:xsi="http://www.w3.org/2001/XMLSchema-instance" xsi:noNamespaceSchemaLocation="http://sumo.dlr.de/xsd/netconvertConfiguration.xsd">

    <input>
        <sumo-net-file value="bk_jh_direpaired.net.xml"/>
    </input>

    <output>
        <output-file value="bk_jh_direpaired.net.xml"/>
    </output>

    <processing>
        <geometry.min-radius.fix.railways value="false"/>
        <geometry.max-grade.fix value="false"/>
        <offset.disable-normalization value="true"/>
        <lefthand value="false"/>
    </processing>

    <junctions>
        <no-turnarounds value="true"/>
        <junctions.corner-detail value="5"/>
        <junctions.limit-turn-speed value="5.5"/>
        <rectangular-lane-cut value="false"/>
    </junctions>

    <pedestrian>
        <walkingareas value="false"/>
    </pedestrian>

    <report>
        <aggregate-warnings value="5"/>
    </report>

</configuration>
-->

<net version="1.3" junctionCornerDetail="5" limitTurnSpeed="5.50" xmlns:xsi="http://www.w3.org/2001/XMLSchema-instance" xsi:noNamespaceSchemaLocation="http://sumo.dlr.de/xsd/net_file.xsd">

    <location netOffset="-230364.64,-3341676.71" convBoundary="0.00,0.00,720.57,1107.17" origBoundary="120.199780,30.176750,120.207260,30.186730" projParameter="+proj=utm +zone=51 +ellps=WGS84 +datum=WGS84 +units=m +no_defs"/>

    <edge id=":23580224_0" function="internal">
        <lane id=":23580224_0_0" index="0" speed="13.89" length="0.30" shape="313.72,959.89 313.72,959.57"/>
        <lane id=":23580224_0_1" index="1" speed="13.89" length="0.30" shape="316.92,959.83 316.92,959.53"/>
        <lane id=":23580224_0_2" index="2" speed="13.89" length="0.30" shape="320.12,959.77 320.12,959.49"/>
    </edge>
    <edge id=":23580235_0" function="internal">
        <lane id=":23580235_0_0" index="0" speed="13.89" length="0.28" shape="337.49,960.19 337.49,960.54"/>
        <lane id=":23580235_0_1" index="1" speed="13.89" length="0.28" shape="334.29,960.22 334.29,960.50"/>
        <lane id=":23580235_0_2" index="2" speed="13.89" length="0.28" shape="331.09,960.25 331.09,960.46"/>
    </edge>
    <edge id=":25326445_0" function="internal">
        <lane id=":25326445_0_0" index="0" speed="13.89" length="0.10" shape="307.96,672.55 307.96,672.55"/>
        <lane id=":25326445_0_1" index="1" speed="13.89" length="0.10" shape="311.16,672.47 311.16,672.47"/>
        <lane id=":25326445_0_2" index="2" speed="13.89" length="0.10" shape="314.36,672.39 314.36,672.39"/>
        <lane id=":25326445_0_3" index="3" speed="13.89" length="0.10" shape="317.56,672.31 317.56,672.31"/>
    </edge>
    <edge id=":25326446_0" function="internal">
        <lane id=":25326446_0_0" index="0" speed="13.89" length="0.30" shape="330.27,379.11 330.27,379.40"/>
        <lane id=":25326446_0_1" index="1" speed="13.89" length="0.30" shape="327.07,379.11 327.07,379.41"/>
        <lane id=":25326446_0_2" index="2" speed="13.89" length="0.30" shape="323.87,379.12 323.87,379.42"/>
        <lane id=":25326446_0_3" index="3" speed="13.89" length="0.30" shape="320.67,379.13 320.67,379.43"/>
        <lane id=":25326446_0_4" index="4" speed="13.89" length="0.30" shape="317.47,379.13 317.47,379.44"/>
    </edge>
    <edge id=":29607187_0" function="internal">
        <lane id=":29607187_0_0" index="0" speed="13.89" length="0.29" shape="302.21,334.42 302.21,334.17"/>
        <lane id=":29607187_0_1" index="1" speed="13.89" length="0.29" shape="305.41,334.39 305.41,334.09"/>
        <lane id=":29607187_0_2" index="2" speed="13.89" length="0.29" shape="308.61,334.35 308.61,334.02"/>
    </edge>
    <edge id=":29607190_0" function="internal">
        <lane id=":29607190_0_0" index="0" speed="13.89" length="8.20" shape="328.47,331.90 328.78,334.32 329.36,335.93 329.92,337.55 330.18,339.97"/>
        <lane id=":29607190_0_1" index="1" speed="13.89" length="8.20" shape="328.47,331.90 328.28,334.32 327.76,335.94 327.22,337.56 326.98,339.98"/>
        <lane id=":29607190_0_2" index="2" speed="13.89" length="8.20" shape="325.27,331.97 325.08,334.37 324.56,335.98 324.02,337.59 323.78,339.99"/>
        <lane id=":29607190_0_3" index="3" speed="13.89" length="8.20" shape="322.07,332.05 321.88,334.43 321.36,336.02 320.82,337.62 320.58,340.00"/>
        <lane id=":29607190_0_4" index="4" speed="13.89" length="8.20" shape="318.87,332.13 318.68,334.49 318.16,336.07 317.62,337.65 317.38,340.00"/>
    </edge>
    <edge id=":32082219_0" function="internal">
        <lane id=":32082219_0_0" index="0" speed="13.89" length="0.30" shape="304.64,511.92 304.64,511.62"/>
        <lane id=":32082219_0_1" index="1" speed="13.89" length="0.30" shape="307.84,511.84 307.84,511.54"/>
        <lane id=":32082219_0_2" index="2" speed="13.89" length="0.30" shape="311.04,511.76 311.04,511.46"/>
    </edge>
    <edge id=":36987532_0" function="internal">
        <lane id=":36987532_0_0" index="0" speed="13.89" length="0.30" shape="707.81,516.42 708.11,516.42"/>
        <lane id=":36987532_0_1" index="1" speed="13.89" length="0.30" shape="707.89,519.62 708.19,519.62"/>
        <lane id=":36987532_0_2" index="2" speed="13.89" length="0.30" shape="707.97,522.82 708.27,522.82"/>
    </edge>
    <edge id=":55064281_0" function="internal">
        <lane id=":55064281_0_0" index="0" speed="13.89" length="0.30" shape="308.56,697.06 308.56,696.80"/>
        <lane id=":55064281_0_1" index="1" speed="13.89" length="0.30" shape="311.76,697.01 311.76,696.72"/>
        <lane id=":55064281_0_2" index="2" speed="13.89" length="0.30" shape="314.96,696.95 314.96,696.64"/>
        <lane id=":55064281_0_3" index="3" speed="13.89" length="0.30" shape="318.16,696.90 318.15,696.56"/>
    </edge>
    <edge id=":55064285_0" function="internal">
        <lane id=":55064285_0_0" index="0" speed="13.89" length="0.10" shape="332.93,696.35 332.93,696.35"/>
        <lane id=":55064285_0_1" index="1" speed="13.89" length="0.10" shape="329.73,696.43 329.73,696.43"/>
        <lane id=":55064285_0_2" index="2" speed="13.89" length="0.10" shape="326.53,696.51 326.53,696.51"/>
    </edge>
    <edge id=":56179797_0" function="internal">
        <lane id=":56179797_0_0" index="0" speed="13.89" length="0.37" shape="337.18,986.84 337.18,987.10"/>
        <lane id=":56179797_0_1" index="1" speed="13.89" length="0.37" shape="333.98,986.81 333.98,987.17"/>
        <lane id=":56179797_0_2" index="2" speed="13.89" length="0.37" shape="330.78,986.77 330.79,987.25"/>
    </edge>
    <edge id=":59768894_0" function="internal">
        <lane id=":59768894_0_0" index="0" speed="13.89" length="0.29" shape="296.19,10.40 296.21,10.06"/>
        <lane id=":59768894_0_1" index="1" speed="13.89" length="0.29" shape="299.38,10.57 299.40,10.29"/>
        <lane id=":59768894_0_2" index="2" speed="13.89" length="0.29" shape="302.58,10.75 302.59,10.52"/>
    </edge>
    <edge id=":59768895_0" function="internal">
        <lane id=":59768895_0_0" index="0" speed="13.89" length="0.51" shape="322.48,9.61 322.49,9.74"/>
        <lane id=":59768895_0_1" index="1" speed="13.89" length="0.51" shape="319.28,9.69 319.31,10.07"/>
        <lane id=":59768895_0_2" index="2" speed="13.89" length="0.51" shape="316.08,9.77 316.12,10.40"/>
        <lane id=":59768895_0_3" index="3" speed="13.89" length="0.51" shape="312.89,9.84 312.94,10.73"/>
    </edge>
    <edge id=":6376086_0" function="internal">
        <lane id=":6376086_0_0" index="0" speed="13.89" length="0.28" shape="312.56,873.39 312.56,873.04"/>
        <lane id=":6376086_0_1" index="1" speed="13.89" length="0.28" shape="315.76,873.31 315.76,873.03"/>
        <lane id=":6376086_0_2" index="2" speed="13.89" length="0.28" shape="318.96,873.23 318.96,873.02"/>
    </edge>
    <edge id=":6376087_0" function="internal">
        <lane id=":6376087_0_0" index="0" speed="13.89" length="0.31" shape="336.30,872.60 336.30,872.82"/>
        <lane id=":6376087_0_1" index="1" speed="13.89" length="0.31" shape="333.10,872.58 333.10,872.90"/>
        <lane id=":6376087_0_2" index="2" speed="13.89" length="0.31" shape="329.90,872.57 329.90,872.98"/>
    </edge>
    <edge id=":6376088_0" function="internal">
        <lane id=":6376088_0_0" index="0" speed="13.89" length="0.30" shape="327.66,299.14 327.67,299.44"/>
        <lane id=":6376088_0_1" index="1" speed="13.89" length="0.30" shape="324.47,299.22 324.47,299.52"/>
        <lane id=":6376088_0_2" index="2" speed="13.89" length="0.30" shape="321.27,299.30 321.27,299.60"/>
        <lane id=":6376088_0_3" index="3" speed="13.89" length="0.30" shape="318.07,299.38 318.08,299.68"/>
    </edge>
    <edge id=":6376089_0" function="internal">
        <lane id=":6376089_0_0" index="0" speed="13.89" length="0.10" shape="301.37,299.94 301.37,299.94"/>
        <lane id=":6376089_0_1" index="1" speed="13.89" length="0.10" shape="304.57,299.86 304.57,299.86"/>
        <lane id=":6376089_0_2" index="2" speed="13.89" length="0.10" shape="307.77,299.78 307.77,299.78"/>
    </edge>
    <edge id=":6376090_0" function="internal">
        <lane id=":6376090_0_0" index="0" speed="13.89" length="0.30" shape="326.55,253.69 326.56,253.99"/>
        <lane id=":6376090_0_1" index="1" speed="13.89" length="0.30" shape="323.36,253.77 323.36,254.07"/>
        <lane id=":6376090_0_2" index="2" speed="13.89" length="0.30" shape="320.16,253.85 320.16,254.15"/>
        <lane id=":6376090_0_3" index="3" speed="13.89" length="0.30" shape="316.96,253.93 316.97,254.23"/>
    </edge>
    <edge id=":6379034_0" function="internal">
        <lane id=":6379034_0_0" index="0" speed="13.89" length="0.29" shape="300.25,254.62 300.25,254.38"/>
        <lane id=":6379034_0_1" index="1" speed="13.89" length="0.29" shape="303.45,254.55 303.44,254.25"/>
        <lane id=":6379034_0_2" index="2" speed="13.89" length="0.29" shape="306.65,254.47 306.64,254.13"/>
    </edge>
    <edge id=":6402555_0" function="internal">
        <lane id=":6402555_0_0" index="0" speed="13.89" length="0.30" shape="302.00,325.60 302.00,325.30"/>
        <lane id=":6402555_0_1" index="1" speed="13.89" length="0.30" shape="305.20,325.52 305.20,325.22"/>
        <lane id=":6402555_0_2" index="2" speed="13.89" length="0.30" shape="308.40,325.44 308.40,325.14"/>
    </edge>
    <edge id=":6402556_0" function="internal">
        <lane id=":6402556_0_0" index="0" speed="13.89" length="0.30" shape="328.29,324.65 328.30,324.95"/>
        <lane id=":6402556_0_1" index="1" speed="13.89" length="0.30" shape="325.10,324.73 325.10,325.03"/>
        <lane id=":6402556_0_2" index="2" speed="13.89" length="0.30" shape="321.90,324.81 321.90,325.11"/>
        <lane id=":6402556_0_3" index="3" speed="13.89" length="0.30" shape="318.70,324.89 318.71,325.19"/>
    </edge>
    <edge id=":6403303_0" function="internal">
        <lane id=":6403303_0_0" index="0" speed="13.89" length="8.20" shape="312.40,830.59 312.14,828.21 311.57,826.63 311.00,825.04 310.71,822.67"/>
        <lane id=":6403303_0_1" index="1" speed="13.89" length="8.20" shape="312.40,830.59 312.64,828.20 313.17,826.60 313.70,825.00 313.91,822.61"/>
        <lane id=":6403303_0_2" index="2" speed="13.89" length="8.20" shape="315.60,830.58 315.84,828.18 316.37,826.57 316.90,824.96 317.11,822.56"/>
        <lane id=":6403303_0_3" index="3" speed="13.89" length="8.20" shape="318.80,830.56 319.04,828.15 319.57,826.53 320.10,824.92 320.31,822.50"/>
    </edge>
    <edge id=":6403304_0" function="internal">
        <lane id=":6403304_0_0" index="0" speed="13.89" length="0.30" shape="336.23,830.36 336.23,830.66"/>
        <lane id=":6403304_0_1" index="1" speed="13.89" length="0.30" shape="333.03,830.44 333.03,830.74"/>
        <lane id=":6403304_0_2" index="2" speed="13.89" length="0.30" shape="329.83,830.52 329.83,830.82"/>
    </edge>
    <edge id=":6405636_0" function="internal">
        <lane id=":6405636_0_0" index="0" speed="13.89" length="0.30" shape="297.25,171.50 297.25,171.20"/>
        <lane id=":6405636_0_1" index="1" speed="13.89" length="0.30" shape="300.45,171.42 300.45,171.12"/>
        <lane id=":6405636_0_2" index="2" speed="13.89" length="0.30" shape="303.65,171.34 303.65,171.04"/>
    </edge>
    <edge id=":6405637_0" function="internal">
        <lane id=":6405637_0_0" index="0" speed="13.89" length="0.30" shape="324.50,170.53 324.51,170.83"/>
        <lane id=":6405637_0_1" index="1" speed="13.89" length="0.30" shape="321.31,170.61 321.31,170.91"/>
        <lane id=":6405637_0_2" index="2" speed="13.89" length="0.30" shape="318.11,170.69 318.11,170.99"/>
        <lane id=":6405637_0_3" index="3" speed="13.89" length="0.30" shape="314.91,170.77 314.92,171.07"/>
    </edge>
    <edge id=":6408677_0" function="internal">
        <lane id=":6408677_0_0" index="0" speed="13.89" length="0.10" shape="640.53,518.07 640.53,518.07"/>
        <lane id=":6408677_0_1" index="1" speed="13.89" length="0.10" shape="640.61,521.27 640.61,521.27"/>
        <lane id=":6408677_0_2" index="2" speed="13.89" length="0.10" shape="640.69,524.47 640.69,524.47"/>
    </edge>
    <edge id=":6408678_0" function="internal">
        <lane id=":6408678_0_0" index="0" speed="13.89" length="0.29" shape="640.41,544.44 640.07,544.45"/>
        <lane id=":6408678_0_1" index="1" speed="13.89" length="0.29" shape="640.28,541.24 640.00,541.25"/>
        <lane id=":6408678_0_2" index="2" speed="13.89" length="0.29" shape="640.16,538.05 639.92,538.05"/>
    </edge>
    <edge id=":6420435_0" function="internal">
        <lane id=":6420435_0_0" index="0" speed="13.89" length="0.30" shape="607.62,518.88 607.93,518.87"/>
        <lane id=":6420435_0_1" index="1" speed="13.89" length="0.30" shape="607.71,522.07 608.01,522.07"/>
        <lane id=":6420435_0_2" index="2" speed="13.89" length="0.30" shape="607.81,525.27 608.09,525.27"/>
    </edge>
    <edge id=":6420436_0" function="internal">
        <lane id=":6420436_0_0" index="0" speed="13.89" length="0.10" shape="608.43,545.23 608.43,545.23"/>
        <lane id=":6420436_0_1" index="1" speed="13.89" length="0.10" shape="608.35,542.03 608.35,542.03"/>
        <lane id=":6420436_0_2" index="2" speed="13.89" length="0.10" shape="608.27,538.83 608.27,538.83"/>
    </edge>
    <edge id=":72622614_0" function="internal">
        <lane id=":72622614_0_0" index="0" speed="13.89" length="0.10" shape="108.77,530.02 108.77,530.02"/>
        <lane id=":72622614_0_1" index="1" speed="13.89" length="0.10" shape="108.85,533.22 108.85,533.22"/>
        <lane id=":72622614_0_2" index="2" speed="13.89" length="0.10" shape="108.93,536.42 108.93,536.42"/>
    </edge>
    <edge id=":88418143_0" function="internal">
        <lane id=":88418143_0_0" index="0" speed="13.89" length="0.49" shape="330.57,508.84 330.57,509.16"/>
        <lane id=":88418143_0_1" index="1" speed="13.89" length="0.49" shape="327.37,508.83 327.38,509.24"/>
        <lane id=":88418143_0_2" index="2" speed="13.89" length="0.49" shape="324.17,508.83 324.18,509.31"/>
        <lane id=":88418143_0_3" index="3" speed="13.89" length="0.49" shape="320.97,508.82 320.98,509.39"/>
        <lane id=":88418143_0_4" index="4" speed="13.89" length="0.49" shape="317.77,508.82 317.78,509.47"/>
    </edge>
    <edge id=":cluster_6375709_6375710_6375777_6375778_0" function="internal">
        <lane id=":cluster_6375709_6375710_6375777_6375778_0_0" index="0" speed="6.59" length="9.07" shape="304.28,557.19 303.80,554.75 302.67,553.03 300.88,552.02 298.43,551.73"/>
    </edge>
    <edge id=":cluster_6375709_6375710_6375777_6375778_1" function="internal">
        <lane id=":cluster_6375709_6375710_6375777_6375778_1_0" index="0" speed="13.89" length="35.45" shape="304.28,557.19 304.89,521.75"/>
        <lane id=":cluster_6375709_6375710_6375777_6375778_1_1" index="1" speed="13.89" length="35.45" shape="307.48,557.11 308.09,521.67"/>
    </edge>
    <edge id=":cluster_6375709_6375710_6375777_6375778_3" function="internal">
        <lane id=":cluster_6375709_6375710_6375777_6375778_3_0" index="0" speed="13.24" length="41.60" shape="310.68,557.03 313.28,548.57 320.13,538.59 328.74,530.23 336.60,526.64"/>
    </edge>
    <edge id=":cluster_6375709_6375710_6375777_6375778_4" function="internal">
        <lane id=":cluster_6375709_6375710_6375777_6375778_4_0" index="0" speed="12.55" length="37.23" shape="313.88,556.95 316.00,549.00 321.77,540.15 329.30,532.92 336.68,529.84"/>
    </edge>
    <edge id=":cluster_6375709_6375710_6375777_6375778_5" function="internal">
        <lane id=":cluster_6375709_6375710_6375777_6375778_5_0" index="0" speed="7.24" length="11.67" shape="337.20,550.77 333.35,551.22 330.65,552.34 329.08,554.12 328.65,556.58"/>
    </edge>
    <edge id=":cluster_6375709_6375710_6375777_6375778_6" function="internal">
        <lane id=":cluster_6375709_6375710_6375777_6375778_6_0" index="0" speed="13.89" length="38.78" shape="337.20,550.77 298.43,551.73"/>
        <lane id=":cluster_6375709_6375710_6375777_6375778_6_1" index="1" speed="13.89" length="38.78" shape="337.12,547.58 298.35,548.53"/>
    </edge>
    <edge id=":cluster_6375709_6375710_6375777_6375778_8" function="internal">
        <lane id=":cluster_6375709_6375710_6375777_6375778_8_0" index="0" speed="13.01" length="39.20" shape="337.04,544.38 325.99,543.18 318.01,538.99 313.11,531.79 311.29,521.59"/>
    </edge>
    <edge id=":cluster_6375709_6375710_6375777_6375778_9" function="internal">
        <lane id=":cluster_6375709_6375710_6375777_6375778_9_0" index="0" speed="6.53" length="9.10" shape="330.87,521.09 331.28,523.57 332.37,525.32 334.15,526.34 336.60,526.64"/>
    </edge>
    <edge id=":cluster_6375709_6375710_6375777_6375778_10" function="internal">
        <lane id=":cluster_6375709_6375710_6375777_6375778_10_0" index="0" speed="13.89" length="35.56" shape="330.87,521.09 328.65,556.58"/>
        <lane id=":cluster_6375709_6375710_6375777_6375778_10_1" index="1" speed="13.89" length="35.56" shape="327.67,521.17 325.45,556.66"/>
        <lane id=":cluster_6375709_6375710_6375777_6375778_10_2" index="2" speed="13.89" length="35.56" shape="324.47,521.25 322.25,556.74"/>
    </edge>
    <edge id=":cluster_6375709_6375710_6375777_6375778_13" function="internal">
        <lane id=":cluster_6375709_6375710_6375777_6375778_13_0" index="0" speed="12.69" length="37.30" shape="321.27,521.33 319.02,529.30 313.21,538.18 305.69,545.44 298.35,548.53"/>
    </edge>
    <edge id=":cluster_6375709_6375710_6375777_6375778_14" function="internal">
        <lane id=":cluster_6375709_6375710_6375777_6375778_14_0" index="0" speed="11.95" length="32.94" shape="318.07,521.41 316.30,528.87 311.54,536.63 305.09,542.76 298.28,545.33"/>
    </edge>
    <edge id=":cluster_6375709_6375710_6375777_6375778_15" function="internal">
        <lane id=":cluster_6375709_6375710_6375777_6375778_15_0" index="0" speed="6.87" length="10.32" shape="297.84,527.44 300.98,527.06 303.20,525.98 304.50,524.21 304.89,521.75"/>
    </edge>
    <edge id=":cluster_6375709_6375710_6375777_6375778_16" function="internal">
        <lane id=":cluster_6375709_6375710_6375777_6375778_16_0" index="0" speed="13.89" length="38.77" shape="297.84,527.44 336.60,526.64"/>
        <lane id=":cluster_6375709_6375710_6375777_6375778_16_1" index="1" speed="13.89" length="38.77" shape="297.92,530.64 336.68,529.84"/>
    </edge>
    <edge id=":cluster_6375709_6375710_6375777_6375778_18" function="internal">
        <lane id=":cluster_6375709_6375710_6375777_6375778_18_0" index="0" speed="12.96" length="37.70" shape="298.00,533.84 308.16,535.19 315.59,539.45 320.29,546.64 322.25,556.74"/>
    </edge>

    <edge id="103952502" from="25326446" to="88418143" priority="0" spreadType="center" shape="323.87,379.27 324.23,472.45 324.17,509.07">
        <lane id="103952502_0" index="0" speed="13.89" length="129.41" shape="330.27,379.40 330.63,472.44 330.57,508.84"/>
        <lane id="103952502_1" index="1" speed="13.89" length="129.41" shape="327.07,379.41 327.43,472.45 327.37,508.83"/>
        <lane id="103952502_2" index="2" speed="13.89" length="129.41" shape="323.87,379.42 324.23,472.45 324.17,508.83"/>
        <lane id="103952502_3" index="3" speed="13.89" length="129.41" shape="320.67,379.43 321.03,472.45 320.97,508.82"/>
        <lane id="103952502_4" index="4" speed="13.89" length="129.41" shape="317.47,379.44 317.83,472.46 317.77,508.82"/>
    </edge>
    <edge id="103952503" from="88418143" to="cluster_6375709_6375710_6375777_6375778" priority="0" spreadType="center" shape="324.17,509.07 324.55,524.59 324.68,530.13">
        <lane id="103952503_0" index="0" speed="13.89" length="11.94" shape="330.57,509.16 330.87,521.09"/>
        <lane id="103952503_1" index="1" speed="13.89" length="11.94" shape="327.38,509.24 327.67,521.17"/>
        <lane id="103952503_2" index="2" speed="13.89" length="11.94" shape="324.18,509.31 324.47,521.25"/>
        <lane id="103952503_3" index="3" speed="13.89" length="11.94" shape="320.98,509.39 321.27,521.33"/>
        <lane id="103952503_4" index="4" speed="13.89" length="11.94" shape="317.78,509.47 318.07,521.41"/>
    </edge>
    <edge id="32456600" from="56179797" to="6375705" priority="0" spreadType="center" shape="333.98,986.99 334.28,999.19 334.99,1106.79">
        <lane id="32456600_0" index="0" speed="13.89" length="119.62" shape="337.18,987.10 337.48,999.14 338.19,1106.77"/>
        <lane id="32456600_1" index="1" speed="13.89" length="119.62" shape="333.98,987.17 334.28,999.19 334.99,1106.79"/>
        <lane id="32456600_2" index="2" speed="13.89" length="119.62" shape="330.79,987.25 331.08,999.24 331.79,1106.81"/>
    </edge>
    <edge id="32456601" from="23580235" to="56179797" priority="0" spreadType="center">
        <lane id="32456601_0" index="0" speed="13.89" length="26.31" shape="337.49,960.54 337.18,986.84"/>
        <lane id="32456601_1" index="1" speed="13.89" length="26.31" shape="334.29,960.50 333.98,986.81"/>
        <lane id="32456601_2" index="2" speed="13.89" length="26.31" shape="331.09,960.46 330.78,986.77"/>
    </edge>
    <edge id="39105789" from="6408677" to="36987532" priority="0" spreadType="center">
        <lane id="39105789_0" index="0" speed="13.89" length="67.30" shape="640.53,518.07 707.81,516.42"/>
        <lane id="39105789_1" index="1" speed="13.89" length="67.30" shape="640.61,521.27 707.89,519.62"/>
        <lane id="39105789_2" index="2" speed="13.89" length="67.30" shape="640.69,524.47 707.97,522.82"/>
    </edge>
    <edge id="39105790" from="36987532" to="6408679" priority="0" spreadType="center">
        <lane id="39105790_0" index="0" speed="13.89" length="12.38" shape="708.11,516.42 720.49,516.11"/>
        <lane id="39105790_1" index="1" speed="13.89" length="12.38" shape="708.19,519.62 720.57,519.31"/>
        <lane id="39105790_2" index="2" speed="13.89" length="12.38" shape="708.27,522.82 720.65,522.51"/>
    </edge>
    <edge id="41516816" from="6403303" to="55064281" priority="0" spreadType="center">
        <lane id="41516816_0" index="0" speed="13.89" length="125.62" shape="310.71,822.67 308.56,697.06"/>
        <lane id="41516816_1" index="1" speed="13.89" length="125.62" shape="313.91,822.61 311.76,697.01"/>
        <lane id="41516816_2" index="2" speed="13.89" length="125.62" shape="317.11,822.56 314.96,696.95"/>
        <lane id="41516816_3" index="3" speed="13.89" length="125.62" shape="320.31,822.50 318.16,696.90"/>
    </edge>
    <edge id="41516824" from="55064285" to="6403304" priority="0" spreadType="center" shape="329.73,696.43 331.56,770.71 331.96,787.34 333.03,830.59">
        <lane id="41516824_0" index="0" speed="13.89" length="134.05" shape="332.93,696.35 334.76,770.63 335.16,787.26 336.23,830.36"/>
        <lane id="41516824_1" index="1" speed="13.89" length="134.05" shape="329.73,696.43 331.56,770.71 331.96,787.34 333.03,830.44"/>
        <lane id="41516824_2" index="2" speed="13.89" length="134.05" shape="326.53,696.51 328.36,770.79 328.76,787.42 329.83,830.52"/>
    </edge>
    <edge id="41516825" from="cluster_6375709_6375710_6375777_6375778" to="55064285" priority="0" spreadType="center" shape="325.12,547.87 325.23,552.31 327.06,587.77 328.67,653.18 329.73,696.43">
        <lane id="41516825_0" index="0" speed="13.89" length="139.84" shape="328.65,556.58 330.26,587.65 331.87,653.10 332.93,696.35"/>
        <lane id="41516825_1" index="1" speed="13.89" length="139.84" shape="325.45,556.66 327.06,587.77 328.67,653.18 329.73,696.43"/>
        <lane id="41516825_2" index="2" speed="13.89" length="139.84" shape="322.25,556.74 323.86,587.89 325.47,653.26 326.53,696.51"/>
    </edge>
    <edge id="45811278" from="29607187" to="6402555" priority="0" spreadType="center">
        <lane id="45811278_0" index="0" speed="13.89" length="8.58" shape="302.21,334.17 302.00,325.60"/>
        <lane id="45811278_1" index="1" speed="13.89" length="8.58" shape="305.41,334.09 305.20,325.52"/>
        <lane id="45811278_2" index="2" speed="13.89" length="8.58" shape="308.61,334.02 308.40,325.44"/>
    </edge>
    <edge id="45811279" from="29607190" to="25326446" priority="0" spreadType="center">
        <lane id="45811279_0" index="0" speed="13.89" length="39.13" shape="330.18,339.97 330.27,379.11"/>
        <lane id="45811279_1" index="1" speed="13.89" length="39.13" shape="326.98,339.98 327.07,379.11"/>
        <lane id="45811279_2" index="2" speed="13.89" length="39.13" shape="323.78,339.99 323.87,379.12"/>
        <lane id="45811279_3" index="3" speed="13.89" length="39.13" shape="320.58,340.00 320.67,379.13"/>
        <lane id="45811279_4" index="4" speed="13.89" length="39.13" shape="317.38,340.00 317.47,379.13"/>
    </edge>
    <edge id="45811280" from="6402556" to="29607190" priority="0" spreadType="center">
        <lane id="45811280_0" index="0" speed="13.89" length="6.95" shape="328.30,324.95 328.47,331.90"/>
        <lane id="45811280_1" index="1" speed="13.89" length="6.95" shape="325.10,325.03 325.27,331.97"/>
        <lane id="45811280_2" index="2" speed="13.89" length="6.95" shape="321.90,325.11 322.07,332.05"/>
        <lane id="45811280_3" index="3" speed="13.89" length="6.95" shape="318.71,325.19 318.87,332.13"/>
    </edge>
    <edge id="60304325" from="6375704" to="23580224" priority="0" spreadType="center">
        <lane id="60304325_0" index="0" speed="13.89" length="147.37" shape="316.38,1107.23 313.72,959.89"/>
        <lane id="60304325_1" index="1" speed="13.89" length="147.37" shape="319.58,1107.17 316.92,959.83"/>
        <lane id="60304325_2" index="2" speed="13.89" length="147.37" shape="322.78,1107.11 320.12,959.77"/>
    </edge>
    <edge id="60304326" from="23580224" to="6376086" priority="0" spreadType="center" shape="316.92,959.68 316.06,885.37 315.76,873.17">
        <lane id="60304326_0" index="0" speed="13.89" length="86.23" shape="313.72,959.57 312.86,885.43 312.56,873.39"/>
        <lane id="60304326_1" index="1" speed="13.89" length="86.23" shape="316.92,959.53 316.06,885.37 315.76,873.31"/>
        <lane id="60304326_2" index="2" speed="13.89" length="86.23" shape="320.12,959.49 319.26,885.31 318.96,873.23"/>
    </edge>
    <edge id="60304328" from="6376087" to="23580235" priority="0" spreadType="center" shape="333.10,872.74 333.81,901.57 334.29,960.36">
        <lane id="60304328_0" index="0" speed="13.89" length="87.33" shape="336.30,872.82 337.01,901.52 337.49,960.19"/>
        <lane id="60304328_1" index="1" speed="13.89" length="87.33" shape="333.10,872.90 333.81,901.57 334.29,960.22"/>
        <lane id="60304328_2" index="2" speed="13.89" length="87.33" shape="329.90,872.98 330.61,901.62 331.09,960.25"/>
    </edge>
    <edge id="61757065" from="55064281" to="25326445" priority="0" spreadType="center">
        <lane id="61757065_0" index="0" speed="13.89" length="24.26" shape="308.56,696.80 307.96,672.55"/>
        <lane id="61757065_1" index="1" speed="13.89" length="24.26" shape="311.76,696.72 311.16,672.47"/>
        <lane id="61757065_2" index="2" speed="13.89" length="24.26" shape="314.96,696.64 314.36,672.39"/>
        <lane id="61757065_3" index="3" speed="13.89" length="24.26" shape="318.15,696.56 317.56,672.31"/>
    </edge>
    <edge id="61757066" from="25326445" to="cluster_6375709_6375710_6375777_6375778" priority="0" spreadType="center" shape="312.76,672.43 310.63,585.95 308.85,552.71 308.74,548.28">
        <lane id="61757066_0" index="0" speed="13.89" length="115.43" shape="307.96,672.55 305.83,586.14 304.28,557.19"/>
        <lane id="61757066_1" index="1" speed="13.89" length="115.43" shape="311.16,672.47 309.03,586.01 307.48,557.11"/>
        <lane id="61757066_2" index="2" speed="13.89" length="115.43" shape="314.36,672.39 312.23,585.89 310.68,557.03"/>
        <lane id="61757066_3" index="3" speed="13.89" length="115.43" shape="317.56,672.31 315.43,585.76 313.88,556.95"/>
    </edge>
    <edge id="76210645" from="6405636" to="59768894" priority="0" spreadType="center" shape="300.45,171.27 298.73,101.42 298.72,22.65 299.39,10.43">
        <lane id="76210645_0" index="0" speed="13.89" length="160.59" shape="297.25,171.20 295.53,101.46 295.52,22.56 296.19,10.40"/>
        <lane id="76210645_1" index="1" speed="13.89" length="160.59" shape="300.45,171.12 298.73,101.42 298.72,22.65 299.38,10.57"/>
        <lane id="76210645_2" index="2" speed="13.89" length="160.59" shape="303.65,171.04 301.93,101.38 301.92,22.74 302.58,10.75"/>
    </edge>
    <edge id="76210646" from="59768894" to="29607183" priority="0" spreadType="center">
        <lane id="76210646_0" index="0" speed="13.89" length="9.88" shape="296.21,10.06 296.92,0.20"/>
        <lane id="76210646_1" index="1" speed="13.89" length="9.88" shape="299.40,10.29 300.11,0.43"/>
        <lane id="76210646_2" index="2" speed="13.89" length="9.88" shape="302.59,10.52 303.30,0.66"/>
    </edge>
    <edge id="76210647" from="59768895" to="6405637" priority="0" spreadType="center" shape="317.69,9.98 318.95,22.15 318.00,100.95 319.71,170.80">