<?xml version="1.0" encoding="UTF-8"?>

<!-- generated on 05/09/20 16:44:09 by Eclipse SUMO netedit Version 1.4.0
<configuration xmlns:xsi="http://www.w3.org/2001/XMLSchema-instance" xsi:noNamespaceSchemaLocation="http://sumo.dlr.de/xsd/netconvertConfiguration.xsd">

    <input>
        <sumo-net-file value="bk_jh_direpaired-3.net.xml"/>
    </input>

    <output>
        <output-file value="bk_jh_direpaired-3.net.xml"/>
    </output>

    <processing>
        <geometry.min-radius.fix.railways value="false"/>
        <geometry.max-grade.fix value="false"/>
        <offset.disable-normalization value="true"/>
        <lefthand value="false"/>
    </processing>

    <junctions>
        <no-turnarounds value="true"/>
        <junctions.corner-detail value="5"/>
        <junctions.limit-turn-speed value="5.5"/>
        <rectangular-lane-cut value="false"/>
    </junctions>

    <pedestrian>
        <walkingareas value="false"/>
    </pedestrian>

    <report>
        <aggregate-warnings value="5"/>
    </report>

</configuration>
-->

<net version="1.3" junctionCornerDetail="5" limitTurnSpeed="5.50" xmlns:xsi="http://www.w3.org/2001/XMLSchema-instance" xsi:noNamespaceSchemaLocation="http://sumo.dlr.de/xsd/net_file.xsd">

    <location netOffset="-230364.64,-3341676.71" convBoundary="0.00,0.00,720.57,1107.17" origBoundary="120.199780,30.176750,120.207260,30.186730" projParameter="+proj=utm +zone=51 +ellps=WGS84 +datum=WGS84 +units=m +no_defs"/>

    <edge id=":23580224_0" function="internal">
        <lane id=":23580224_0_0" index="0" speed="13.89" length="0.30" shape="315.32,959.86 315.32,959.55"/>
        <lane id=":23580224_0_1" index="1" speed="13.89" length="0.30" shape="318.52,959.80 318.52,959.51"/>
    </edge>
    <edge id=":23580235_0" function="internal">
        <lane id=":23580235_0_0" index="0" speed="13.89" length="0.28" shape="335.89,960.21 335.89,960.52"/>
        <lane id=":23580235_0_1" index="1" speed="13.89" length="0.28" shape="332.69,960.23 332.69,960.48"/>
    </edge>
    <edge id=":25326445_0" function="internal">
        <lane id=":25326445_0_0" index="0" speed="13.89" length="0.10" shape="309.56,672.51 309.56,672.51"/>
        <lane id=":25326445_0_1" index="1" speed="13.89" length="0.10" shape="312.76,672.43 312.76,672.43"/>
        <lane id=":25326445_0_2" index="2" speed="13.89" length="0.10" shape="315.96,672.35 315.96,672.35"/>
    </edge>
    <edge id=":25326446_0" function="internal">
        <lane id=":25326446_0_0" index="0" speed="13.89" length="0.30" shape="327.07,379.11 327.07,379.41"/>
        <lane id=":25326446_0_1" index="1" speed="13.89" length="0.30" shape="323.87,379.12 323.87,379.42"/>
        <lane id=":25326446_0_2" index="2" speed="13.89" length="0.30" shape="320.67,379.13 320.67,379.43"/>
    </edge>
    <edge id=":29607187_0" function="internal">
        <lane id=":29607187_0_0" index="0" speed="13.89" length="0.29" shape="303.81,334.40 303.81,334.13"/>
        <lane id=":29607187_0_1" index="1" speed="13.89" length="0.29" shape="307.01,334.37 307.01,334.06"/>
    </edge>
    <edge id=":29607190_0" function="internal">
        <lane id=":29607190_0_0" index="0" speed="13.89" length="0.28" shape="326.97,335.78 326.97,336.13"/>
        <lane id=":29607190_0_1" index="1" speed="13.89" length="0.28" shape="323.77,335.86 323.77,336.14"/>
        <lane id=":29607190_0_2" index="2" speed="13.89" length="0.28" shape="320.57,335.94 320.57,336.15"/>
    </edge>
    <edge id=":32082219_0" function="internal">
        <lane id=":32082219_0_0" index="0" speed="13.89" length="0.30" shape="306.24,511.88 306.24,511.58"/>
        <lane id=":32082219_0_1" index="1" speed="13.89" length="0.30" shape="309.44,511.80 309.44,511.50"/>
    </edge>
    <edge id=":36987532_0" function="internal">
        <lane id=":36987532_0_0" index="0" speed="13.89" length="0.30" shape="707.85,518.02 708.15,518.02"/>
        <lane id=":36987532_0_1" index="1" speed="13.89" length="0.30" shape="707.93,521.22 708.23,521.22"/>
    </edge>
    <edge id=":55064281_0" function="internal">
        <lane id=":55064281_0_0" index="0" speed="13.89" length="8.20" shape="311.83,700.86 311.54,698.47 310.96,696.88 310.37,695.30 310.06,692.91"/>
        <lane id=":55064281_0_1" index="1" speed="13.89" length="8.20" shape="311.83,700.86 312.04,698.46 312.56,696.84 313.07,695.23 313.26,692.83"/>
        <lane id=":55064281_0_2" index="2" speed="13.89" length="8.20" shape="315.03,700.80 315.24,698.39 315.76,696.78 316.27,695.16 316.46,692.75"/>
    </edge>
    <edge id=":55064285_0" function="internal">
        <lane id=":55064285_0_0" index="0" speed="13.89" length="0.10" shape="331.33,696.39 331.33,696.39"/>
        <lane id=":55064285_0_1" index="1" speed="13.89" length="0.10" shape="328.13,696.47 328.13,696.47"/>
    </edge>
    <edge id=":56179797_0" function="internal">
        <lane id=":56179797_0_0" index="0" speed="13.89" length="0.23" shape="335.58,986.89 335.58,987.07"/>
        <lane id=":56179797_0_1" index="1" speed="13.89" length="0.23" shape="332.38,986.85 332.38,987.15"/>
    </edge>
    <edge id=":59768894_0" function="internal">
        <lane id=":59768894_0_0" index="0" speed="13.89" length="0.29" shape="297.78,10.48 297.80,10.17"/>
        <lane id=":59768894_0_1" index="1" speed="13.89" length="0.29" shape="300.98,10.66 301.00,10.40"/>
    </edge>
    <edge id=":59768895_0" function="internal">
        <lane id=":59768895_0_0" index="0" speed="13.89" length="0.25" shape="319.29,9.81 319.29,9.94"/>
        <lane id=":59768895_0_1" index="1" speed="13.89" length="0.25" shape="316.09,9.89 316.11,10.27"/>
    </edge>
    <edge id=":6376086_0" function="internal">
        <lane id=":6376086_0_0" index="0" speed="13.89" length="0.28" shape="314.16,873.35 314.16,873.04"/>
        <lane id=":6376086_0_1" index="1" speed="13.89" length="0.28" shape="317.36,873.27 317.36,873.02"/>
    </edge>
    <edge id=":6376087_0" function="internal">
        <lane id=":6376087_0_0" index="0" speed="13.89" length="0.26" shape="334.70,872.62 334.70,872.83"/>
        <lane id=":6376087_0_1" index="1" speed="13.89" length="0.26" shape="331.50,872.60 331.50,872.91"/>
    </edge>
    <edge id=":6376088_0" function="internal">
        <lane id=":6376088_0_0" index="0" speed="13.89" length="8.21" shape="324.37,295.37 324.68,297.76 325.27,299.35 325.86,300.94 326.17,303.33"/>
        <lane id=":6376088_0_1" index="1" speed="13.89" length="8.21" shape="324.37,295.37 324.18,297.77 323.67,299.39 323.16,301.01 322.97,303.41"/>
        <lane id=":6376088_0_2" index="2" speed="13.89" length="8.21" shape="321.17,295.45 320.98,297.85 320.47,299.47 319.96,301.08 319.77,303.49"/>
    </edge>
    <edge id=":6376089_0" function="internal">
        <lane id=":6376089_0_0" index="0" speed="13.89" length="0.10" shape="302.97,299.90 302.97,299.90"/>
        <lane id=":6376089_0_1" index="1" speed="13.89" length="0.10" shape="306.17,299.82 306.17,299.82"/>
    </edge>
    <edge id=":6376090_0" function="internal">
        <lane id=":6376090_0_0" index="0" speed="13.89" length="0.10" shape="323.36,253.92 323.36,253.92"/>
        <lane id=":6376090_0_1" index="1" speed="13.89" length="0.10" shape="320.16,254.00 320.16,254.00"/>
    </edge>
    <edge id=":6379034_0" function="internal">
        <lane id=":6379034_0_0" index="0" speed="13.89" length="0.29" shape="301.85,254.58 301.85,254.32"/>
        <lane id=":6379034_0_1" index="1" speed="13.89" length="0.29" shape="305.05,254.51 305.04,254.19"/>
    </edge>
    <edge id=":6402555_0" function="internal">
        <lane id=":6402555_0_0" index="0" speed="13.89" length="0.30" shape="303.60,325.56 303.60,325.26"/>
        <lane id=":6402555_0_1" index="1" speed="13.89" length="0.30" shape="306.80,325.48 306.80,325.18"/>
    </edge>
    <edge id=":6402556_0" function="internal">
        <lane id=":6402556_0_0" index="0" speed="13.89" length="0.30" shape="326.70,324.69 326.70,324.99"/>
        <lane id=":6402556_0_1" index="1" speed="13.89" length="0.30" shape="323.50,324.77 323.50,325.07"/>
        <lane id=":6402556_0_2" index="2" speed="13.89" length="0.30" shape="320.30,324.85 320.30,325.15"/>
    </edge>
    <edge id=":6403303_0" function="internal">
        <lane id=":6403303_0_0" index="0" speed="13.89" length="0.29" shape="313.98,826.73 313.98,826.46"/>
        <lane id=":6403303_0_1" index="1" speed="13.89" length="0.29" shape="317.18,826.72 317.18,826.41"/>
    </edge>
    <edge id=":6403304_0" function="internal">
        <lane id=":6403304_0_0" index="0" speed="13.89" length="0.30" shape="334.63,830.40 334.63,830.70"/>
        <lane id=":6403304_0_1" index="1" speed="13.89" length="0.30" shape="331.43,830.48 331.43,830.78"/>
    </edge>
    <edge id=":6405636_0" function="internal">
        <lane id=":6405636_0_0" index="0" speed="13.89" length="0.30" shape="298.85,171.46 298.85,171.16"/>
        <lane id=":6405636_0_1" index="1" speed="13.89" length="0.30" shape="302.05,171.38 302.05,171.08"/>
    </edge>
    <edge id=":6405637_0" function="internal">
        <lane id=":6405637_0_0" index="0" speed="13.89" length="0.30" shape="321.31,170.61 321.31,170.91"/>
        <lane id=":6405637_0_1" index="1" speed="13.89" length="0.30" shape="318.11,170.69 318.11,170.99"/>
    </edge>
    <edge id=":6408677_0" function="internal">
        <lane id=":6408677_0_0" index="0" speed="13.89" length="0.10" shape="640.57,519.67 640.57,519.67"/>
        <lane id=":6408677_0_1" index="1" speed="13.89" length="0.10" shape="640.65,522.87 640.65,522.87"/>
    </edge>
    <edge id=":6408678_0" function="internal">
        <lane id=":6408678_0_0" index="0" speed="13.89" length="0.29" shape="640.41,544.44 640.07,544.45"/>
        <lane id=":6408678_0_1" index="1" speed="13.89" length="0.29" shape="640.28,541.24 640.00,541.25"/>
        <lane id=":6408678_0_2" index="2" speed="13.89" length="0.29" shape="640.16,538.05 639.92,538.05"/>
    </edge>
    <edge id=":6420435_0" function="internal">
        <lane id=":6420435_0_0" index="0" speed="13.89" length="0.30" shape="607.66,520.48 607.97,520.47"/>
        <lane id=":6420435_0_1" index="1" speed="13.89" length="0.30" shape="607.76,523.67 608.05,523.67"/>
    </edge>
    <edge id=":6420436_0" function="internal">
        <lane id=":6420436_0_0" index="0" speed="13.89" length="0.10" shape="608.43,545.23 608.43,545.23"/>
        <lane id=":6420436_0_1" index="1" speed="13.89" length="0.10" shape="608.35,542.03 608.35,542.03"/>
        <lane id=":6420436_0_2" index="2" speed="13.89" length="0.10" shape="608.27,538.83 608.27,538.83"/>
    </edge>
    <edge id=":72622614_0" function="internal">
        <lane id=":72622614_0_0" index="0" speed="13.89" length="8.21" shape="104.81,531.72 107.20,531.41 108.79,530.82 110.38,530.23 112.77,529.92"/>
        <lane id=":72622614_0_1" index="1" speed="13.89" length="8.21" shape="104.81,531.72 107.21,531.91 108.83,532.42 110.45,532.93 112.85,533.12"/>
        <lane id=":72622614_0_2" index="2" speed="13.89" length="8.21" shape="104.89,534.92 107.29,535.11 108.91,535.62 110.52,536.13 112.93,536.32"/>
    </edge>
    <edge id=":88418143_0" function="internal">
        <lane id=":88418143_0_0" index="0" speed="13.89" length="0.28" shape="327.37,508.94 327.37,509.13"/>
        <lane id=":88418143_0_1" index="1" speed="13.89" length="0.28" shape="324.17,508.93 324.17,509.21"/>
        <lane id=":88418143_0_2" index="2" speed="13.89" length="0.28" shape="320.97,508.93 320.97,509.29"/>
    </edge>
    <edge id=":cluster_6375709_6375710_6375777_6375778_0" function="internal">
        <lane id=":cluster_6375709_6375710_6375777_6375778_0_0" index="0" speed="7.00" length="10.37" shape="305.88,557.15 305.37,554.01 304.22,551.79 302.42,550.48 299.98,550.09"/>
    </edge>
    <edge id=":cluster_6375709_6375710_6375777_6375778_1" function="internal">
        <lane id=":cluster_6375709_6375710_6375777_6375778_1_0" index="0" speed="13.89" length="35.42" shape="305.88,557.15 306.49,521.73"/>
        <lane id=":cluster_6375709_6375710_6375777_6375778_1_1" index="1" speed="13.89" length="35.42" shape="309.08,557.07 309.69,521.65"/>
    </edge>
    <edge id=":cluster_6375709_6375710_6375777_6375778_3" function="internal">
        <lane id=":cluster_6375709_6375710_6375777_6375778_3_0" index="0" speed="12.19" length="35.06" shape="312.28,556.99 314.15,549.30 319.39,541.00 326.39,534.34 333.52,531.51"/>
    </edge>
    <edge id=":cluster_6375709_6375710_6375777_6375778_4" function="internal">
        <lane id=":cluster_6375709_6375710_6375777_6375778_4_0" index="0" speed="6.84" length="10.30" shape="334.00,550.85 330.85,551.28 328.65,552.38 327.38,554.17 327.05,556.62"/>
    </edge>
    <edge id=":cluster_6375709_6375710_6375777_6375778_5" function="internal">
        <lane id=":cluster_6375709_6375710_6375777_6375778_5_0" index="0" speed="13.89" length="34.02" shape="334.00,550.85 299.98,550.09"/>
        <lane id=":cluster_6375709_6375710_6375777_6375778_5_1" index="1" speed="13.89" length="34.02" shape="333.92,547.65 299.91,546.89"/>
    </edge>
    <edge id=":cluster_6375709_6375710_6375777_6375778_7" function="internal">
        <lane id=":cluster_6375709_6375710_6375777_6375778_7_0" index="0" speed="12.32" length="35.05" shape="333.84,544.46 326.35,542.23 318.51,536.47 312.30,528.99 309.69,521.65"/>
    </edge>
    <edge id=":cluster_6375709_6375710_6375777_6375778_8" function="internal">
        <lane id=":cluster_6375709_6375710_6375777_6375778_8_0" index="0" speed="6.93" length="10.40" shape="327.67,521.20 328.10,524.36 329.20,526.60 330.98,527.92 333.44,528.31"/>
    </edge>
    <edge id=":cluster_6375709_6375710_6375777_6375778_9" function="internal">
        <lane id=":cluster_6375709_6375710_6375777_6375778_9_0" index="0" speed="13.89" length="35.43" shape="327.67,521.20 327.05,556.62"/>
        <lane id=":cluster_6375709_6375710_6375777_6375778_9_1" index="1" speed="13.89" length="35.43" shape="324.47,521.28 323.85,556.70"/>
    </edge>
    <edge id=":cluster_6375709_6375710_6375777_6375778_11" function="internal">
        <lane id=":cluster_6375709_6375710_6375777_6375778_11_0" index="0" speed="12.32" length="35.11" shape="321.27,521.36 319.26,529.07 313.97,537.38 306.99,544.06 299.91,546.89"/>
    </edge>
    <edge id=":cluster_6375709_6375710_6375777_6375778_12" function="internal">
        <lane id=":cluster_6375709_6375710_6375777_6375778_12_0" index="0" speed="6.88" length="10.32" shape="299.44,527.42 302.57,527.04 304.80,525.97 306.10,524.20 306.49,521.73"/>
    </edge>
    <edge id=":cluster_6375709_6375710_6375777_6375778_13" function="internal">
        <lane id=":cluster_6375709_6375710_6375777_6375778_13_0" index="0" speed="13.89" length="34.02" shape="299.44,527.42 333.44,528.31"/>
        <lane id=":cluster_6375709_6375710_6375777_6375778_13_1" index="1" speed="13.89" length="34.02" shape="299.51,530.62 333.52,531.51"/>
    </edge>
    <edge id=":cluster_6375709_6375710_6375777_6375778_15" function="internal">
        <lane id=":cluster_6375709_6375710_6375777_6375778_15_0" index="0" speed="12.52" length="35.10" shape="299.59,533.82 307.07,536.11 314.88,541.90 321.12,549.37 323.85,556.70"/>
    </edge>

    <edge id="103952502" from="25326446" to="88418143" priority="0" spreadType="center" shape="323.87,379.27 324.23,472.45 324.17,509.07">
        <lane id="103952502_0" index="0" speed="13.89" length="129.51" shape="327.07,379.41 327.43,472.45 327.37,508.94"/>
        <lane id="103952502_1" index="1" speed="13.89" length="129.51" shape="323.87,379.42 324.23,472.45 324.17,508.93"/>
        <lane id="103952502_2" index="2" speed="13.89" length="129.51" shape="320.67,379.43 321.03,472.45 320.97,508.93"/>
    </edge>
    <edge id="103952503" from="88418143" to="cluster_6375709_6375710_6375777_6375778" priority="0" spreadType="center" shape="324.17,509.07 324.55,524.59 324.68,530.13">
        <lane id="103952503_0" index="0" speed="13.89" length="12.07" shape="327.37,509.13 327.67,521.20"/>
        <lane id="103952503_1" index="1" speed="13.89" length="12.07" shape="324.17,509.21 324.47,521.28"/>
        <lane id="103952503_2" index="2" speed="13.89" length="12.07" shape="320.97,509.29 321.27,521.36"/>
    </edge>
    <edge id="32456600" from="56179797" to="6375705" priority="0" spreadType="center" shape="333.98,986.99 334.28,999.19 334.99,1106.79">
        <lane id="32456600_0" index="0" speed="13.89" length="119.69" shape="335.58,987.07 335.88,999.17 336.59,1106.78"/>
        <lane id="32456600_1" index="1" speed="13.89" length="119.69" shape="332.38,987.15 332.68,999.21 333.39,1106.80"/>
    </edge>
    <edge id="32456601" from="23580235" to="56179797" priority="0" spreadType="center">
        <lane id="32456601_0" index="0" speed="13.89" length="26.37" shape="335.89,960.52 335.58,986.89"/>
        <lane id="32456601_1" index="1" speed="13.89" length="26.37" shape="332.69,960.48 332.38,986.85"/>
    </edge>
    <edge id="39105789" from="6408677" to="36987532" priority="0" spreadType="center">
        <lane id="39105789_0" index="0" speed="13.89" length="67.30" shape="640.57,519.67 707.85,518.02"/>
        <lane id="39105789_1" index="1" speed="13.89" length="67.30" shape="640.65,522.87 707.93,521.22"/>
    </edge>
    <edge id="39105790" from="36987532" to="6408679" priority="0" spreadType="center">
        <lane id="39105790_0" index="0" speed="13.89" length="12.38" shape="708.15,518.02 720.53,517.71"/>
        <lane id="39105790_1" index="1" speed="13.89" length="12.38" shape="708.23,521.22 720.61,520.91"/>
    </edge>
    <edge id="41516816" from="6403303" to="55064281" priority="0" spreadType="center">
        <lane id="41516816_0" index="0" speed="13.89" length="125.62" shape="313.98,826.46 311.83,700.86"/>
        <lane id="41516816_1" index="1" speed="13.89" length="125.62" shape="317.18,826.41 315.03,700.80"/>
    </edge>
    <edge id="41516824" from="55064285" to="6403304" priority="0" spreadType="center" shape="329.73,696.43 331.56,770.71 331.96,787.34 333.03,830.59">
        <lane id="41516824_0" index="0" speed="13.89" length="134.05" shape="331.33,696.39 333.16,770.67 333.56,787.30 334.63,830.40"/>
        <lane id="41516824_1" index="1" speed="13.89" length="134.05" shape="328.13,696.47 329.96,770.75 330.36,787.38 331.43,830.48"/>
    </edge>
    <edge id="41516825" from="cluster_6375709_6375710_6375777_6375778" to="55064285" priority="0" spreadType="center" shape="325.12,547.87 325.23,552.31 327.06,587.77 328.67,653.18 329.73,696.43">
        <lane id="41516825_0" index="0" speed="13.89" length="139.84" shape="327.05,556.62 328.66,587.71 330.27,653.14 331.33,696.39"/>
        <lane id="41516825_1" index="1" speed="13.89" length="139.84" shape="323.85,556.70 325.46,587.83 327.07,653.22 328.13,696.47"/>
    </edge>
    <edge id="45811278" from="29607187" to="6402555" priority="0" spreadType="center">
        <lane id="45811278_0" index="0" speed="13.89" length="8.58" shape="303.81,334.13 303.60,325.56"/>
        <lane id="45811278_1" index="1" speed="13.89" length="8.58" shape="307.01,334.06 306.80,325.48"/>
    </edge>
    <edge id="45811279" from="29607190" to="25326446" priority="0" spreadType="center">
        <lane id="45811279_0" index="0" speed="13.89" length="42.98" shape="326.97,336.13 327.07,379.11"/>
        <lane id="45811279_1" index="1" speed="13.89" length="42.98" shape="323.77,336.14 323.87,379.12"/>
        <lane id="45811279_2" index="2" speed="13.89" length="42.98" shape="320.57,336.15 320.67,379.13"/>
    </edge>
    <edge id="45811280" from="6402556" to="29607190" priority="0" spreadType="center">
        <lane id="45811280_0" index="0" speed="13.89" length="10.80" shape="326.70,324.99 326.97,335.78"/>
        <lane id="45811280_1" index="1" speed="13.89" length="10.80" shape="323.50,325.07 323.77,335.86"/>
        <lane id="45811280_2" index="2" speed="13.89" length="10.80" shape="320.30,325.15 320.57,335.94"/>
    </edge>
    <edge id="60304325" from="6375704" to="23580224" priority="0" spreadType="center">
        <lane id="60304325_0" index="0" speed="13.89" length="147.37" shape="317.98,1107.20 315.32,959.86"/>
        <lane id="60304325_1" index="1" speed="13.89" length="147.37" shape="321.18,1107.14 318.52,959.80"/>
    </edge>
    <edge id="60304326" from="23580224" to="6376086" priority="0" spreadType="center" shape="316.92,959.68 316.06,885.37 315.76,873.17">
        <lane id="60304326_0" index="0" speed="13.89" length="86.23" shape="315.32,959.55 314.46,885.40 314.16,873.35"/>
        <lane id="60304326_1" index="1" speed="13.89" length="86.23" shape="318.52,959.51 317.66,885.34 317.36,873.27"/>
    </edge>
    <edge id="60304328" from="6376087" to="23580235" priority="0" spreadType="center" shape="333.10,872.74 333.81,901.57 334.29,960.36">
        <lane id="60304328_0" index="0" speed="13.89" length="87.36" shape="334.70,872.83 335.41,901.54 335.89,960.21"/>
        <lane id="60304328_1" index="1" speed="13.89" length="87.36" shape="331.50,872.91 332.21,901.60 332.69,960.23"/>
    </edge>
    <edge id="61757065" from="55064281" to="25326445" priority="0" spreadType="center">
        <lane id="61757065_0" index="0" speed="13.89" length="20.41" shape="310.06,692.91 309.56,672.51"/>
        <lane id="61757065_1" index="1" speed="13.89" length="20.41" shape="313.26,692.83 312.76,672.43"/>
        <lane id="61757065_2" index="2" speed="13.89" length="20.41" shape="316.46,692.75 315.96,672.35"/>
    </edge>
    <edge id="61757066" from="25326445" to="cluster_6375709_6375710_6375777_6375778" priority="0" spreadType="center" shape="312.76,672.43 310.63,585.95 308.85,552.71 308.74,548.28">
        <lane id="61757066_0" index="0" speed="13.89" length="115.43" shape="309.56,672.51 307.43,586.07 305.88,557.15"/>
        <lane id="61757066_1" index="1" speed="13.89" length="115.43" shape="312.76,672.43 310.63,585.95 309.08,557.07"/>
        <lane id="61757066_2" index="2" speed="13.89" length="115.43" shape="315.96,672.35 313.83,585.83 312.28,556.99"/>
    </edge>
    <edge id="76210645" from="6405636" to="59768894" priority="0" spreadType="center" shape="300.45,171.27 298.73,101.42 298.72,22.65 299.39,10.43">
        <lane id="76210645_0" index="0" speed="13.89" length="160.59" shape="298.85,171.16 297.13,101.44 297.12,22.61 297.78,10.48"/>
        <lane id="76210645_1" index="1" speed="13.89" length="160.59" shape="302.05,171.08 300.33,101.40 300.32,22.69 300.98,10.66"/>
    </edge>
    <edge id="76210646" from="59768894" to="29607183" priority="0" spreadType="center">
        <lane id="76210646_0" index="0" speed="13.89" length="9.88" shape="297.80,10.17 298.51,0.32"/>
        <lane id="76210646_1" index="1" speed="13.89" length="9.88" shape="301.00,10.40 301.71,0.54"/>
    </edge>
    <edge id="76210647" from="59768895" to="6405637" priority="0" spreadType="center" shape="317.69,9.98 318.95,22.15 318.00,100.95 319.71,170.80">
        <lane id="76210647_0" index="0" speed="13.89" length="160.64" shape="319.29,9.94 320.55,22.08 319.60,100.94 321.31,170.61"/>
        <lane id="76210647_1" index="1" speed="13.89" length="160.64" shape="316.11,10.27 317.35,22.22 316.40,100.96 318.11,170.69"/>
    </edge>
    <edge id="76210648" from="29607184" to="59768895" priority="0" spreadType="center">
        <lane id="76210648_0" index="0" speed="13.89" length="9.86" shape="319.05,-0.04 319.29,9.81"/>
        <lane id="76210648_1" index="1" speed="13.89" length="9.86" shape="315.85,0.04 316.09,9.89"/>
    </edge>
    <edge id="79487898" from="cluster_6375709_6375710_6375777_6375778" to="32082219" priority="0" spreadType="center" shape="308.31,530.54 308.17,524.99 307.84,511.69">
        <lane id="79487898_0" index="0" speed="13.89" length="9.85" shape="306.49,521.73 306.24,511.88"/>
        <lane id="79487898_1" index="1" speed="13.89" length="9.85" shape="309.69,521.65 309.44,511.80"/>
    </edge>
    <edge id="79487899" from="32082219" to="29607187" priority="0" spreadType="center" shape="307.84,511.69 307.52,498.38 307.00,477.31 305.41,334.24">
        <lane id="79487899_0" index="0" speed="13.89" length="177.17" shape="306.24,511.58 305.92,498.42 305.40,477.34 303.81,334.40"/>
        <lane id="79487899_1" index="1" speed="13.89" length="177.17" shape="309.44,511.50 309.12,498.34 308.60,477.28 307.01,334.37"/>
    </edge>
    <edge id="8418367" from="cluster_6375709_6375710_6375777_6375778" to="6402562" priority="0" spreadType="center" shape="308.74,548.28 294.29,548.63 234.54,548.99 176.75,550.41 148.81,551.10 73.65,551.83 0.41,552.53">
        <lane id="8418367_0" index="0" speed="13.89" length="299.57" shape="299.98,550.09 294.31,550.23 234.56,550.59 176.79,552.01 148.84,552.70 73.67,553.43 0.43,554.13"/>
        <lane id="8418367_1" index="1" speed="13.89" length="299.57" shape="299.91,546.89 294.27,547.03 234.52,547.39 176.71,548.81 148.78,549.50 73.63,550.23 0.39,550.93"/>
    </edge>
    <edge id="8430097" from="cluster_6375709_6375710_6375777_6375778" to="6420435" priority="0" spreadType="center" shape="324.68,530.13 393.08,528.45 607.86,522.07">
        <lane id="8430097_0" index="0" speed="13.89" length="274.34" shape="333.44,528.31 393.04,526.85 607.66,520.48"/>
        <lane id="8430097_1" index="1" speed="13.89" length="274.34" shape="333.52,531.51 393.12,530.05 607.76,523.67"/>
    </edge>
    <edge id="8430098" from="6420436" to="cluster_6375709_6375710_6375777_6375778" priority="0" spreadType="center" shape="608.35,542.03 516.84,544.28 462.90,545.60 367.50,546.83 325.12,547.87">
        <lane id="8430098_0" index="0" speed="13.89" length="274.50" shape="608.43,545.23 516.92,547.48 462.96,548.80 367.56,550.03 334.00,550.85"/>
        <lane id="8430098_1" index="1" speed="13.89" length="274.50" shape="608.35,542.03 516.84,544.28 462.90,545.60 367.50,546.83 333.92,547.65"/>
        <lane id="8430098_2" index="2" speed="13.89" length="274.50" shape="608.27,538.83 516.76,541.08 462.84,542.40 367.44,543.63 333.84,544.46"/>
    </edge>
    <edge id="8430340" from="6379034" to="6405636" priority="0" spreadType="center" shape="303.45,254.40 300.72,182.36 300.45,171.27">
        <lane id="8430340_0" index="0" speed="13.89" length="82.89" shape="301.85,254.32 299.12,182.41 298.85,171.46"/>
        <lane id="8430340_1" index="1" speed="13.89" length="82.89" shape="305.04,254.19 302.32,182.31 302.05,171.38"/>
    </edge>
    <edge id="8430342" from="6405637" to="6376090" priority="0" spreadType="center" shape="319.71,170.80 319.99,181.89 321.76,253.96">
        <lane id="8430342_0" index="0" speed="13.89" length="83.04" shape="321.31,170.91 321.59,181.85 323.36,253.92"/>
        <lane id="8430342_1" index="1" speed="13.89" length="83.04" shape="318.11,170.99 318.39,181.93 320.16,254.00"/>
    </edge>
    <edge id="8447898" from="6376086" to="6403303" priority="0" spreadType="center">
        <lane id="8447898_0" index="0" speed="13.89" length="46.31" shape="314.16,873.04 313.98,826.73"/>
        <lane id="8447898_1" index="1" speed="13.89" length="46.31" shape="317.36,873.02 317.18,826.72"/>
    </edge>
    <edge id="8453216" from="6376088" to="6402556" priority="0" spreadType="center">
        <lane id="8453216_0" index="0" speed="13.89" length="21.37" shape="326.17,303.33 326.70,324.69"/>
        <lane id="8453216_1" index="1" speed="13.89" length="21.37" shape="322.97,303.41 323.50,324.77"/>
        <lane id="8453216_2" index="2" speed="13.89" length="21.37" shape="319.77,303.49 320.30,324.85"/>
    </edge>
    <edge id="8453217" from="6402555" to="6376089" priority="0" spreadType="center">
        <lane id="8453217_0" index="0" speed="13.89" length="25.37" shape="303.60,325.26 302.97,299.90"/>
        <lane id="8453217_1" index="1" speed="13.89" length="25.37" shape="306.80,325.18 306.17,299.82"/>
    </edge>
    <edge id="8453219" from="6376090" to="6376088" priority="0" spreadType="center">
        <lane id="8453219_0" index="0" speed="13.89" length="41.46" shape="323.36,253.92 324.37,295.37"/>
        <lane id="8453219_1" index="1" speed="13.89" length="41.46" shape="320.16,254.00 321.17,295.45"/>
    </edge>
    <edge id="8453220" from="6376089" to="6379034" priority="0" spreadType="center">
        <lane id="8453220_0" index="0" speed="13.89" length="45.33" shape="302.97,299.90 301.85,254.58"/>
        <lane id="8453220_1" index="1" speed="13.89" length="45.33" shape="306.17,299.82 305.05,254.51"/>
    </edge>
    <edge id="8453651" from="6403304" to="6376087" priority="0" spreadType="center" shape="333.03,830.59 333.27,840.57 333.10,872.74">
        <lane id="8453651_0" index="0" speed="13.89" length="41.88" shape="334.63,830.70 334.87,840.55 334.70,872.62"/>
        <lane id="8453651_1" index="1" speed="13.89" length="41.88" shape="331.43,830.78 331.67,840.59 331.50,872.60"/>
    </edge>
    <edge id="8465265" from="6420435" to="6408677" priority="0" spreadType="center">
        <lane id="8465265_0" index="0" speed="13.89" length="32.61" shape="607.97,520.47 640.57,519.67"/>
        <lane id="8465265_1" index="1" speed="13.89" length="32.61" shape="608.05,523.67 640.65,522.87"/>
    </edge>
    <edge id="8465266" from="6408663" to="6408678" priority="0" spreadType="center">
        <lane id="8465266_0" index="0" speed="13.89" length="75.02" shape="715.38,541.50 640.41,544.44"/>
        <lane id="8465266_1" index="1" speed="13.89" length="75.02" shape="715.25,538.30 640.28,541.24"/>
        <lane id="8465266_2" index="2" speed="13.89" length="75.02" shape="715.12,535.10 640.16,538.05"/>
    </edge>
    <edge id="8465267" from="6408678" to="6420436" priority="0" spreadType="center">
        <lane id="8465267_0" index="0" speed="13.89" length="31.65" shape="640.07,544.45 608.43,545.23"/>
        <lane id="8465267_1" index="1" speed="13.89" length="31.65" shape="640.00,541.25 608.35,542.03"/>
        <lane id="8465267_2" index="2" speed="13.89" length="31.65" shape="639.92,538.05 608.27,538.83"/>
    </edge>