<flows>

		<!--  0-4点   -->

	<flow id="1to4_sec1" begin="0" end="18000" from="8465266" to="76210646"  number="50"/>
	<flow id="1to3_sec1" begin="0" end="18000" from="8465266" to="8418367"   number="100"/>
	<flow id="1to2_sec1" begin="0" end="18000" from="8465266" to="32456600"  number="50"/>

	<flow id="3to2_sec1" begin="0" end="18000" from="84850470" to="32456600" number="50"/>
	<flow id="3to1_sec1" begin="0" end="18000" from="84850470" to="39105790" number="100"/>
	<flow id="3to4_sec1" begin="0" end="18000" from="84850470" to="76210646" number="50"/>

	<flow id="2to1_sec1" begin="0" end="18000" from="60304325" to="39105790" number="50"/>
	<flow id="2to4_sec1" begin="0" end="18000" from="60304325" to="76210646" number="100"/>
	<flow id="2to3_sec1" begin="0" end="18000" from="60304325" to="8418367"  number="50"/>

	<flow id="4to3_sec1" begin="0" end="18000" from="76210648" to="8418367"  number="50"/>
	<flow id="4to2_sec1" begin="0" end="18000" from="76210648" to="32456600" number="100"/>
	<flow id="4to1_sec1" begin="0" end="18000" from="76210648" to="39105790" number="50"/>

		<!--  5-6点   -->

	<flow id="1to4_sec2" begin="18000" end="25200" from="8465266" to="76210646"  number="100"/>
	<flow id="1to3_sec2" begin="18000" end="25200" from="8465266" to="8418367"   number="300"/>
	<flow id="1to2_sec2" begin="18000" end="25200" from="8465266" to="32456600"  number="100"/>

	<flow id="3to2_sec2" begin="18000" end="25200" from="84850470" to="32456600" number="100"/>
	<flow id="3to1_sec2" begin="18000" end="25200" from="84850470" to="39105790" number="300"/>
	<flow id="3to4_sec2" begin="18000" end="25200" from="84850470" to="76210646" number="100"/>

	<flow id="2to1_sec2" begin="18000" end="25200" from="60304325" to="39105790" number="100"/>
	<flow id="2to4_sec2" begin="18000" end="25200" from="60304325" to="76210646" number="300"/>
	<flow id="2to3_sec2" begin="18000" end="25200" from="60304325" to="8418367"  number="100"/>

	<flow id="4to3_sec2" begin="18000" end="25200" from="76210648" to="8418367"  number="100"/>
	<flow id="4to2_sec2" begin="18000" end="25200" from="76210648" to="32456600" number="300"/>
	<flow id="4to1_sec2" begin="18000" end="25200" from="76210648" to="39105790" number="100"/>

		<!--  7-9点   -->

	<flow id="1to4_sec3" begin="25200" end="36000" from="8465266" to="76210646"  number="200"/>
	<flow id="1to3_sec3" begin="25200" end="36000" from="8465266" to="8418367"   number="500"/>
	<flow id="1to2_sec3" begin="25200" end="36000" from="8465266" to="32456600"  number="100"/>

	<flow id="3to2_sec3" begin="25200" end="36000" from="84850470" to="32456600" number="200"/>
	<flow id="3to1_sec3" begin="25200" end="36000" from="84850470" to="39105790" number="500"/>
	<flow id="3to4_sec3" begin="25200" end="36000" from="84850470" to="76210646" number="100"/>

	<flow id="2to1_sec3" begin="25200" end="36000" from="60304325" to="39105790" number="300"/>
	<flow id="2to4_sec3" begin="25200" end="36000" from="60304325" to="76210646" number="12000"/>
	<flow id="2to3_sec3" begin="25200" end="36000" from="60304325" to="8418367"  number="400"/>

	<flow id="4to3_sec3" begin="25200" end="36000" from="76210648" to="8418367"  number="300"/>
	<flow id="4to2_sec3" begin="25200" end="36000" from="76210648" to="32456600" number="12000"/>
	<flow id="4to1_sec3" begin="25200" end="36000" from="76210648" to="39105790" number="400"/>

		<!--  10-16点   -->

	<flow id="1to4_sec4" begin="36000" end="61200" from="8465266" to="76210646"  number="200"/>
	<flow id="1to3_sec4" begin="36000" end="61200" from="8465266" to="8418367"   number="500"/>
	<flow id="1to2_sec4" begin="36000" end="61200" from="8465266" to="32456600"  number="100"/>

	<flow id="3to2_sec4" begin="36000" end="61200" from="84850470" to="32456600" number="200"/>
	<flow id="3to1_sec4" begin="36000" end="61200" from="84850470" to="39105790" number="500"/>
	<flow id="3to4_sec4" begin="36000" end="61200" from="84850470" to="76210646" number="100"/>

	<flow id="2to1_sec4" begin="36000" end="61200" from="60304325" to="39105790" number="200"/>
	<flow id="2to4_sec4" begin="36000" end="61200" from="60304325" to="76210646" number="700"/>
	<flow id="2to3_sec4" begin="36000" end="61200" from="60304325" to="8418367"  number="200"/>

	<flow id="4to3_sec4" begin="36000" end="61200" from="76210648" to="8418367"  number="200"/>
	<flow id="4to2_sec4" begin="36000" end="61200" from="76210648" to="32456600" number="700"/>
	<flow id="4to1_sec4" begin="36000" end="61200" from="76210648" to="39105790" number="200"/>

		<!--  17-19点   -->

	<flow id="1to4_sec5" begin="61200" end="72000" from="8465266" to="76210646"  number="200"/>
	<flow id="1to3_sec5" begin="61200" end="72000" from="8465266" to="8418367"   number="500"/>
	<flow id="1to2_sec5" begin="61200" end="72000" from="8465266" to="32456600"  number="100"/>

	<flow id="3to2_sec5" begin="61200" end="72000" from="84850470" to="32456600" number="200"/>
	<flow id="3to1_sec5" begin="61200" end="72000" from="84850470" to="39105790" number="500"/>
	<flow id="3to4_sec5" begin="61200" end="72000" from="84850470" to="76210646" number="100"/>

	<flow id="2to1_sec5" begin="61200" end="72000" from="60304325" to="39105790" number="300"/>
	<flow id="2to4_sec5" begin="61200" end="72000" from="60304325" to="76210646" number="12000"/>
	<flow id="2to3_sec5" begin="61200" end="72000" from="60304325" to="8418367"  number="400"/>

	<flow id="4to3_sec5" begin="61200" end="72000" from="76210648" to="8418367"  number="300"/>
	<flow id="4to2_sec5" begin="61200" end="72000" from="76210648" to="32456600" number="12000"/>
	<flow id="4to1_sec5" begin="61200" end="72000" from="76210648" to="39105790" number="400"/>

		<!--  20-21点   -->

	<flow id="1to4_sec6" begin="72000" end="79200" from="8465266" to="76210646"  number="200"/>
	<flow id="1to3_sec6" begin="72000" end="79200" from="8465266" to="8418367"   number="500"/>
	<flow id="1to2_sec6" begin="72000" end="79200" from="8465266" to="32456600"  number="100"/>

	<flow id="3to2_sec6" begin="72000" end="79200" from="84850470" to="32456600" number="200"/>
	<flow id="3to1_sec6" begin="72000" end="79200" from="84850470" to="39105790" number="500"/>
	<flow id="3to4_sec6" begin="72000" end="79200" from="84850470" to="76210646" number="100"/>

	<flow id="2to1_sec6" begin="72000" end="79200" from="60304325" to="39105790" number="200"/>
	<flow id="2to4_sec6" begin="72000" end="79200" from="60304325" to="76210646" number="700"/>
	<flow id="2to3_sec6" begin="72000" end="79200" from="60304325" to="8418367"  number="200"/>

	<flow id="4to3_sec6" begin="72000" end="79200" from="76210648" to="8418367"  number="200"/>
	<flow id="4to2_sec6" begin="72000" end="79200" from="76210648" to="32456600" number="700"/>
	<flow id="4to1_sec6" begin="72000" end="79200" from="76210648" to="39105790" number="200"/>

		<!--  22-23点   -->

	<flow id="1to4_sec7" begin="79200" end="86400" from="8465266" to="76210646"  number="50"/>
	<flow id="1to3_sec7" begin="79200" end="86400" from="8465266" to="8418367"   number="100"/>
	<flow id="1to2_sec7" begin="79200" end="86400" from="8465266" to="32456600"  number="50"/>

	<flow id="3to2_sec7" begin="79200" end="86400" from="84850470" to="32456600" number="50"/>
	<flow id="3to1_sec7" begin="79200" end="86400" from="84850470" to="39105790" number="100"/>
	<flow id="3to4_sec7" begin="79200" end="86400" from="84850470" to="76210646" number="50"/>

	<flow id="2to1_sec7" begin="79200" end="86400" from="60304325" to="39105790" number="50"/>
	<flow id="2to4_sec7" begin="79200" end="86400" from="60304325" to="76210646" number="100"/>
	<flow id="2to3_sec7" begin="79200" end="86400" from="60304325" to="8418367"  number="50"/>

	<flow id="4to3_sec7" begin="79200" end="86400" from="76210648" to="8418367"  number="50"/>
	<flow id="4to2_sec7" begin="79200" end="86400" from="76210648" to="32456600" number="100"/>
	<flow id="4to1_sec7" begin="79200" end="86400" from="76210648" to="39105790" number="50"/>
</flows>
